FloresCase.py
from numpy import array

def caseFlores():
    ppc = {"version": '2'}

    ## Power Flow Data
    ## system MVA base

    ppc["baseMVA"] = 10

    ## bus data 
    #   bus_i   type Pd     Qd          Gs Bs area Vm           Va      baseKV zone Vmax    Vmin 
    ppc["bus"] = array([
        [1,	    3,	0.03,	0.009,	    0,	0,	1,	1.014447,	0,	        15,	1,	1.1,	0.9],
        [2,	    1,	0.048,	0.0144,	    0,	0,	1,	1.011708,	-0.039971,	15,	1,	1.1,	0.9],
        [3,	    1,	0.03,	0.009,	    0,	0,	1,	1.011204,	-0.047385,	15,	1,	1.1,	0.9],
        [4,	    1,	0.075,	0.0225,	    0,	0,	1,	1.010665,	-0.055537,	15,	1,	1.1,	0.9],
        [5,	    1,	0.189,	0.0567,	    0,	0,	1,	1.010095,	-0.064317,	15,	1,	1.1,	0.9],
        [6,	    1,	0.048,	0.0144,	    0,	0,	1,	1.008384,	-0.048008,	15,	1,	1.1,	0.9],
        [7,	    1,	0.075,	0.0225,	    0,	0,	1,	1.014447,	-1e-06,	    15,	1,	1.1,	0.9],
        [8,	    1,	0.015,	0.0045,	    0,	0,	1,	1.010958,	-0.051726,	15,	1,	1.1,	0.9],
        [9,	    1,	0.0945,	0.02835,	0,	0,	1,	1.00837,	-0.027819,	15,	1,	1.1,	0.9],
        [10,	1,	0.075,	0.0225,	    0,	0,	1,	1.007897,	-0.025899,	15,	1,	1.1,	0.9],
        [11,	1,	0.048,	0.0144,	    0,	0,	1,	1.00769,	-0.026448,	15,	1,	1.1,	0.9],
        [12,	1,	0.075,	0.0225,	    0,	0,	1,	1.007526,	-0.026959,	15,	1,	1.1,	0.9],
        [13,	1,	0.048,	0.0144,	    0,	0,	1,	1.007283,	-0.026124,	15,	1,	1.1,	0.9],
        [14,	1,	0.06,	0.018,	    0,	0,	1,	1.007119,	-0.025514,	15,	1,	1.1,	0.9],
        [15,	1,	0.048,	0.0144,	    0,	0,	1,	1.006917,	-0.023392,	15,	1,	1.1,	0.9],
        [16,	1,	0.006,	0.0018,	    0,	0,	1,	1.006893,	-0.023123,	15,	1,	1.1,	0.9],
        [17,	1,	0.006,	0.0018,	    0,	0,	1,	1.009774,	-0.247025,	15,	1,	1.1,	0.9],
        [18,	1,	0.024,	0.0072,	    0,	0,	1,	1.005661,	-0.468118,	15,	1,	1.1,	0.9],
        [19,	2,	0.006,	0.0018,	    0,	0,	1,	1.006326,	-0.533241,	15,	1,	1.1,	0.9],
        [20,	1,	0.03,	0.009,	    0,	0,	1,	1.004245,	-0.559836,	15,	1,	1.1,	0.9],
        [21,	1,	0.024,	0.0072,	    0,	0,	1,	1.003382,	-0.585363,	15,	1,	1.1,	0.9],
        [22,	1,	0.048,	0.0144,	    0,	0,	1,	1.00157,	-0.638799,	15,	1,	1.1,	0.9],
        [23,	1,	0.12,	0.036,	    0,	0,	1,	1.000273,	-0.655107,	15,	1,	1.1,	0.9],
        [24,	1,	0.12,	0.036,	    0,	0,	1,	0.99967,	-0.66267,	15,	1,	1.1,	0.9],
        [25,	1,	0.03,	0.009,	    0,	0,	1,	0.998748,	-0.674206,	15,	1,	1.1,	0.9],
        [26,	1,	0.03,	0.009,	    0,	0,	1,	0.998463,	-0.677768,	15,	1,	1.1,	0.9],
        [27,	1,	0.015,	0.0045,	    0,	0,	1,	0.998406,	-0.678486,	15,	1,	1.1,	0.9],
        [28,	1,	0.015,	0.0045,	    0,	0,	1,	1.005137,	-0.530024,	15,	1,	1.1,	0.9],
        [29,	1,	0.015,	0.0045,	    0,	0,	1,	1.004857,	-0.532099,	15,	1,	1.1,	0.9],
        [30,	1,	0.048,	0.0144,	    0,	0,	1,	1.005083,	-0.532862,	15,	1,	1.1,	0.9],
        [31,	1,	0.0075,	0.00225,	0,	0,	1,	0.997327,	-0.586897,	15,	1,	1.1,	0.9],
        [32,	1,	0.0075,	0.00225,	0,	0,	1,	0.997259,	-0.589043,	15,	1,	1.1,	0.9],
        [33,	1,	0.015,	0.0045,	    0,	0,	1,	0.996905,	-0.594039,	15,	1,	1.1,	0.9],
        [34,	1,	0.03,	0.009,	    0,	0,	1,	0.996817,	-0.594624,	15,	1,	1.1,	0.9],
        [35,	1,	0.15,	0.045,  	0,	0,	1,	0.99759,	-0.578594,	15,	1,	1.1,	0.9],
        [36,	1,	0.06,	0.018,  	0,	0,	1,	0.996909,	-0.59224,	15,	1,	1.1,	0.9],
        [37,	1,	0.024,	0.0072,	    0,	0,	1,	0.996106,	-0.602789,	15,	1,	1.1,	0.9],
        [38,	1,	0.015,	0.0045,	    0,	0,	1,	0.991647,	-0.660237,	15,	1,	1.1,	0.9],
        [39,	1,	0.0075,	0.00225,	0,	0,	1,	0.991326,	-0.664292,	15,	1,	1.1,	0.9],
        [40,	1,	0.075,	0.0225,	    0,	0,	1,	0.991277,	-0.664334,	15,	1,	1.1,	0.9],
        [41,	1,	0.015,	0.0045,	    0,	0,	1,	1.01131,	-0.011876,	15,	1,	1.1,	0.9],
        [42,	1,	0.0075,	0.00225,	0,	0,	1,	1.010794,	-0.013467,	15,	1,	1.1,	0.9],
        [43,	1,	0,	    0,	        0,	0,	1,	1.010109,	-0.014547,	15,	1,	1.1,	0.9],
        [44,	1,	0.075,	0.0225,	    0,	0,	1,	1.009772,	-0.01876,	15,	1,	1.1,	0.9],
        [45,	1,	0.015,	0.0045,	    0,	0,	1,	1.010086,	-0.015253,	15,	1,	1.1,	0.9],
        [46,	2,	0,	    0,	        0,	0,	1,	1.016,	    0,	        15,	1,	1.1,	0.9]
    ])

    ## generator data
    #   bus	    Pg	        Qg	            Qmax	Qmin	Vg	        mBase status	Pmax	Pmin	Pc1	Pc2	Qc1min	Qc1max	Qc2min	Qc2max	ramp_agc	ramp_10	ramp_30	ramp_q	apf	mu_Pmax	mu_Pmin	mu_Qmax	mu_Qmin
    ppc["gen"] = array([
        #[1, 	1.204785,	0.104298947,	1.2,	-1.2,	1.014447,	10,	1,	2.5,	0,	0,	0,	0,	0,	0,	0,	0,	0,	0,	0,	0,	0.0000,	0.0000,	0.0000,	0.0000],
        [1, 	1.204785,	0.104298947,	1.2,	-1.2,	1.014447,	10,	1,	0.5,	0,	0,	0,	0,	0,	0,	0,	0,	0,	0,	0,	0,	0.0000,	0.0000,	0.0000,	0.0000],
        #[46,	0.304785,	0.0608410526,	0.7,	-0.7,	1.014447,	10,	1,	1.5,	0,	0,	0,	0,	0,	0,	0,	0,	0,	0,	0,	0,	0.0000,	0.0000,	0.0000,	0.0000],
        [46,	0.304785,	0.0608410526,	0.7,	-0.7,	1.014447,	10,	1,	0.5,	0,	0,	0,	0,	0,	0,	0,	0,	0,	0,	0,	0,	0.0000,	0.0000,	0.0000,	0.0000],
        [19,	0.40863,	0.2954,	        0.3,	-0.3,	1.006326,	10,	1,	0.6,	0,	0,	0,	0,	0,	0,	0,	0,	0,	0,	0,	0,	0.0000,	0.0000,	0.0000,	0.0000]
    ])

    ## branch data 
    # fbus, tbus, r, x, b, rateA, rateB, rateC, ratio, angle, status, angmin, angmax 
    ppc["branch"] = array([ 
        [1,	    2,	0.06518,	0.035900002,	0.0001269,	4.29,	4.29,	4.29,	0,	0,	1,	-360,	360],
        [1,	    7,	0,	4.4444e-06,	0,	999,	999,	999,	0,	0,	1,	-360,	360],
        [1,	    8,	0.0573584,	0.031592002,	0.000111672,	4.29,	4.29,	4.29,	0,	0,	1,	-360,	360],
        [1,	    17,	0.127101001,	0.070005003,	0.000247455,	4.29,	4.29,	4.29,	0,	0,	1,	-360,	360],
        [1,	    41,	0.257754007,	0.088678796,	0.000290241,	3.12,	3.12,	3.12,	0,	0,	1,	-360,	360],
        [2,	    3,	0.013036,	0.00718,	2.538e-05,	4.29,	4.29,	4.29,	0,	0,	1,	-360,	360],
        [3,	    4,	0.016295,	0.008975,	3.1725e-05,	4.29,	4.29,	4.29,	0,	0,	1,	-360,	360],
        [4,	    5,	0.0192281,	0.010590501,	3.74355e-05,	4.29,	4.29,	4.29,	0,	0,	1,	-360,	360],
        [5,	    6,	0.089279002,	0.0079132,	0.001459854,	2.6,	2.6,	2.6,	0,	0,	1,	-360,	360],
        [8,	    9,	0.055035001,	0.004878,	0.00089991,	2.6,	2.6,	2.6,	0,	0,	1,	-360,	360],
        [9,	    10,	0.010092,	0.001952,	0.00039996,	5.46,	5.46,	5.46,	0,	0,	1,	-360,	360],
        [10,	11,	0.00546,	0.001728,	0,	5.3,	5.3,	5.3,	0,	0,	1,	-360,	360],
        [11,	12,	0.00546,	0.001728,	0,	5.3,	5.3,	5.3,	0,	0,	1,	-360,	360],
        [12,	13,	0.010092,	0.001952,	0.00039996,	5.46,	5.46,	5.46,	0,	0,	1,	-360,	360],
        [13,	14,	0.010092,	0.001952,	0.00039996,	5.46,	5.46,	5.46,	0,	0,	1,	-360,	360],
        [14,	15,	0.018345,	0.001626,	0.00029997,	2.6,	2.6,	2.6,	0,	0,	1,	-360,	360],
        [15,	16,	0.004892,	0.0004336,	7.9992e-05,	2.6,	2.6,	2.6,	0,	0,	1,	-360,	360],
        [17,	18,	0.114065001,	0.062825003,	0.000222075,	4.29,	4.29,	4.29,	0,	0,	1,	-360,	360],
        [18,	19,	0.06518,	0.035900002,	0.0001269,	4.29,	4.29,	4.29,	0,	0,	1,	-360,	360],
        #[18,	19,	0.06518,	0.035900002,	0.0001269,	0,	4.29,	4.29,	0,	0,	1,	-360,	360],
        [18,	28,	0.192281001,	0.105905005,	0.000374355,	4.29,	4.29,	4.29,	0,	0,	1,	-360,	360],
        [18,	35,	0.187392501,	0.103212505,	0.000364838,	4.29,	4.29,	4.29,	0,	0,	1,	-360,	360],
        [19,	20,	0.0446483,	0.024591501,	8.69265e-05,	4.29,	4.29,	4.29,	0,	0,	1,	-360,	360],
        [20,	21,	0.017870001,	0.017049999,	6.705e-05,	6.24,	6.24,	6.24,	0,	0,	1,	-360,	360],
        [21,	22,	0.038063102,	0.036316498,	0.000142817,	6.24,	6.24,	6.24,	0,	0,	1,	-360,	360],
        [22,	23,	0.03259,	0.017950001,	6.345e-05,	4.29,	4.29,	4.29,	0,	0,	1,	-360,	360],
        [23,	24,	0.016295,	0.008975,	3.1725e-05,	4.29,	4.29,	4.29,	0,	0,	1,	-360,	360],
        [24,	25,	0.029331,	0.016155001,	5.7105e-05,	4.29,	4.29,	4.29,	0,	0,	1,	-360,	360],
        [25,	26,	0.016295,	0.008975,	3.1725e-05,	4.29,	4.29,	4.29,	0,	0,	1,	-360,	360],
        [26,	27,	0.016295,	0.008975,	3.1725e-05,	4.29,	4.29,	4.29,	0,	0,	1,	-360,	360],
        [28,	29,	0.093955002,	0.010298,	0.00189981,	3.77,	3.77,	3.77,	0,	0,	1,	-360,	360],
        [28,	30,	0.04192,	0.0118064,	0.00241623,	4.73,	4.73,	4.73,	0,	0,	1,	-360,	360],
        [31,	32,	0.0076841,	0.0073315,	2.88315e-05,	6.24,	6.24,	6.24,	0,	0,	1,	-360,	360],
        [32,	33,	0.055403,	0.030515002,	0.000107865,	4.29,	4.29,	4.29,	0,	0,	1,	-360,	360],
        [33,	34,	0.108300003,	0.037259998,	0.00012195,	3.12,	3.12,	3.12,	0,	0,	1,	-360,	360],
        [35,	31,	0.024481901,	0.023358499,	9.18585e-05,	6.24,	6.24,	6.24,	0,	0,	1,	-360,	360],
        [35,	36,	0.0201852,	0.014215499,	5.26703e-05,	5.07,	5.07,	5.07,	0,	0,	1,	-360,	360],
        [36,	37,	0.026072,	0.014360001,	5.076e-05,	4.29,	4.29,	4.29,	0,	0,	1,	-360,	360],
        [37,	38,	0.162950001,	0.089750004,	0.00031725,	4.29,	4.29,	4.29,	0,	0,	1,	-360,	360],
        [38,	39,	0.03259,	0.017950001,	6.345e-05,	4.29,	4.29,	4.29,	0,	0,	1,	-360,	360],
        [39,	40,	0.018473001,	0.0058464,	0,	5.3,	5.3,	5.3,	0,	0,	1,	-360,	360],
        [41,	42,	0.048735001,	0.016766999,	5.48775e-05,	3.12,	3.12,	3.12,	0,	0,	1,	-360,	360],
        [42,	43,	0.070434003,	0.022291202,	0,	5.3,	5.3,	5.3,	0,	0,	1,	-360,	360],
        [43,	44,	0.039108,	0.021540001,	7.614e-05,	4.29,	4.29,	4.29,	0,	0,	1,	-360,	360],
        [43,	45,	0.012509001,	0.011934999,	4.6935e-05,	6.24,	6.24,	6.24,	0,	0,	1,	-360,	360],
        [46,	1,	0.02,	0.02,	0,	999,	999,	999,	0,	0,	1,	-360,	360]
    ])

    ## generator cost data 
    # 1 startup shutdown n x1 y1 ... xn yn 
    # 2 startup shutdown n c(n-1) ... c0

    ppc["gencost"] = array([
        [2,	1500,	0,	3,	0.11,	261,	150],
        [2,	2000,	0,	3,	0.085,	88,	600],
        [2,	3000,	0,	3,	0.1225,	87,	335]
    ])

    ppc["bus_name"] = [
        'SE-AF   ',
        '1002    ',
        '1014    ',
        '26      ',
        '2       ',
        '1       ',
        '5       ',
        '3       ',
        '18      ',
        '27      ',
        '1015    ',
        '21      ',
        '1017    ',
        '1007    ',
        '1011    ',
        '24      ',
        '25      ',
        '19      ',
        'PEBV    ',
        '4       ',
        '1010    ',
        '11      ',
        '10      ',
        '29      ',
        '8       ',
        '1012    ',
        '1003    ',
        'NA1     ',
        '1006    ',
        '1008    ',
        '14      ',
        '1013    ',
        '15      ',
        '16      ',
        '13      ',
        '12      ',
        '28      ',
        '1016    ',
        '9       ',
        '22      ',
        '6       ',
        '20      ',
        'NA2     ',
        '7       ',
        '1018    ',
        'HYDRO   '
    ]

    return ppc
 
